--Exercise 1--

I1 0 3 DC 0.1
V1 4 0 AC 2V 20  
*Vr1 4 3 DC 0V
*Vr2 0 2 DC 0V

R1 1 0 2
R2 2 3 3
R3 3 4 3
R4 2 4 10
L1 1 3 5
C1 1 3 10

*E1 2 1 3 4 -3
*F1 2 3 Vr1 10
G1 1 0 1 3 8 	
*H1 4 2 Vr2 9


.probe 
.ac dec 100 2 500
.print 
*Remaining - Probe parsing, print window, no instruction integration, test for various circuits

